data_Si
_cell_length_a 5.4307
_cell_length_b 5.4307
_cell_length_c 5.4307
_cell_angle_alpha 90
_cell_angle_beta 90
_cell_angle_gamma 90
_symmetry_space_group_name_H-M 'F m -3 m'

loop_
_atom_site_label
_atom_site_type_symbol
_atom_site_fract_x
_atom_site_fract_y
_atom_site_fract_z
_atom_site_occupancy
Si Si 0.00000 0.00000 0.00000 1.0
